LAMMPS (15 Sep 2022)
# 2d WCA system, random initial configuration

#variable density equal 0.5
variable initial_temperature equal 3.0
variable final_temperature equal 0.1
variable dt equal 0.01
variable tau equal 100*0.01
variable thermo_time equal 50000*0.01
variable equil_steps equal 50000
variable run_steps equal 100000

units           lj
atom_style      atomic
dimension       2

lattice         sq 1.09
Lattice spacing in x,y,z = 0.95782629 0.95782629 0.95782629
region          box block 0 20 0 20 -0.5 0.5
# number of atom types
create_box      1 box
Created orthogonal box = (0 0 -0.47891314) to (19.156526 19.156526 0.47891314)
create_atoms    1 box
Created 400 atoms
mass 1 1.0

velocity all create 3 12345

pair_style      lj/cut 1.0
#type_1 type_2 epsilon sigma cutoff
pair_coeff      1 1 10.0 0.89089871814 1.0
pair_modify shift yes

timestep 0.01
thermo 500

fix 1 all nvt temp 3 3 1
run 50000
Generated 0 of 0 mixed pair_coeff terms from geometric mixing rule
Step          Temp          E_pair         E_mol          TotEng         Press
0   3              1.7408422      0              4.7333422      53.236726
Averages over the last 51 of 101 rows, steps 25000 to 50000:
Temp E_pair E_mol TotEng Press
3.04288 1.95959 0 4.99486 41.9783
Loop time of 1.00427 on 8 procs for 50000 steps with 400 atoms

unfix 1
dump           1 all atom 100000 2dWCA_T0.1_d1.09_N100000.lammpstrj
dump           2 all dcd 500 2dWCA_T0.1_d1.09_N100000.dcd
fix 1 all nvt temp 3 0.1 1

run 100000
Generated 0 of 0 mixed pair_coeff terms from geometric mixing rule
Step          Temp          E_pair         E_mol          TotEng         Press
50000   3.0854223      1.7529177      0              4.8306264      39.324024
Averages over the last 101 of 201 rows, steps 100000 to 150000:
Temp E_pair E_mol TotEng Press
0.830675 0.483909 0 1.31251 15.5589
Loop time of 1.85066 on 8 procs for 100000 steps with 400 atoms
