LAMMPS (15 Sep 2022)
# 2d WCA system, random initial configuration

#variable density equal 0.5
variable initial_temperature equal 3.0
variable final_temperature equal 0.1
variable dt equal 0.01
variable tau equal 100*0.01
variable thermo_time equal 50000*0.01
variable equil_steps equal 50000
variable run_steps equal 100000

units           lj
atom_style      atomic
dimension       2

lattice         sq 1.01
Lattice spacing in x,y,z = 0.99503719 0.99503719 0.99503719
region          box block 0 20 0 20 -0.5 0.5
# number of atom types
create_box      1 box
Created orthogonal box = (0 0 -0.4975186) to (19.900744 19.900744 0.4975186)
create_atoms    1 box
Created 400 atoms
mass 1 1.0

velocity all create 3 12345

pair_style      lj/cut 1.0
#type_1 type_2 epsilon sigma cutoff
pair_coeff      1 1 10.0 0.89089871814 1.0
pair_modify shift yes

timestep 0.01
thermo 500

fix 1 all nvt temp 3 3 1
run 50000
Generated 0 of 0 mixed pair_coeff terms from geometric mixing rule
Step          Temp          E_pair         E_mol          TotEng         Press
0   3              0.018363012    0              3.010863       6.8061861
Averages over the last 51 of 101 rows, steps 25000 to 50000:
Temp E_pair E_mol TotEng Press
3.04932 1.63857 0 4.68027 32.7292
Loop time of 0.993898 on 8 procs for 50000 steps with 400 atoms

unfix 1
dump           1 all atom 100000 2dWCA_T0.1_d1.01_N100000.lammpstrj
dump           2 all dcd 500 2dWCA_T0.1_d1.01_N100000.dcd
fix 1 all nvt temp 3 0.1 1

run 100000
Generated 0 of 0 mixed pair_coeff terms from geometric mixing rule
Step          Temp          E_pair         E_mol          TotEng         Press
50000   3.0907446      1.6562916      0              4.7393093      32.984399
Averages over the last 101 of 201 rows, steps 100000 to 150000:
Temp E_pair E_mol TotEng Press
0.817494 0.302466 0 1.11792 9.37366
Loop time of 1.82787 on 8 procs for 100000 steps with 400 atoms
